/*--------------------------------*- C++ -*----------------------------------*\
| =========                 |                                                 |
| \\      /  F ield         | OpenFOAM: The Open Source CFD Toolbox           |
|  \\    /   O peration     | Version:  2.4.0                                 |
|   \\  /    A nd           | Web:      www.OpenFOAM.org                      |
|    \\/     M anipulation  |                                                 |
\*---------------------------------------------------------------------------*/
FoamFile
{
    version     2.0;
    format      ascii;
    class       volScalarField;
    location    "0/coolant";
    object      k;
}
// * * * * * * * * * * * * * * * * * * * * * * * * * * * * * * * * * * * * * //

dimensions      [ 0 2 -2 0 0 0 0 ];

internalField   uniform 0.001;

boundaryField
{
    outlet
    {
        type            zeroGradient;
        value           uniform 0;
    }
    parede
    {
        type            zeroGradient;
        value           uniform 0;
    }
    inlet
    {
        type            fixedValue;
        value           uniform 0.001;
    }
    coolant_to_cladding
    {
        type            compressible::kqRWallFunction;
        value           uniform 0.001;
    }
}


// ************************************************************************* //
