/*--------------------------------*- C++ -*----------------------------------*\
| =========                 |                                                 |
| \\      /  F ield         | OpenFOAM: The Open Source CFD Toolbox           |
|  \\    /   O peration     | Version:  2.4.0                                 |
|   \\  /    A nd           | Web:      www.OpenFOAM.org                      |
|    \\/     M anipulation  |                                                 |
\*---------------------------------------------------------------------------*/
FoamFile
{
    version     2.0;
    format      ascii;
    class       volScalarField;
    location    "0/coolant";
    object      p_rgh;
}
// * * * * * * * * * * * * * * * * * * * * * * * * * * * * * * * * * * * * * //

dimensions      [ 1 -1 -2 0 0 0 0 ];

internalField   uniform 1750000;

boundaryField
{
    outlet
    {
        type            fixedValue;
        value           uniform 1750000;
    }
    parede
    {
        type            zeroGradient;
        value           uniform 0;
    }
    inlet
    {
        type            zeroGradient;
    }
    coolant_to_cladding
    {
        type            zeroGradient;
        value           uniform 0;
    }
}


// ************************************************************************* //
